<?xml version="1.0" encoding="UTF-8"?>

<!-- generated on 2025-09-13 22:45:30 by Eclipse SUMO netconvert Version v1_22_0+1813-e2166271f4e
<netconvertConfiguration xmlns:xsi="http://www.w3.org/2001/XMLSchema-instance" xsi:noNamespaceSchemaLocation="http://sumo.dlr.de/xsd/netconvertConfiguration.xsd">

    <input>
        <node-files value="grid.nod.xml"/>
        <edge-files value="grid.edg.xml"/>
    </input>

    <output>
        <output-file value="grid.net.xml"/>
    </output>

    <junctions>
        <junctions.join value="true"/>
    </junctions>

</netconvertConfiguration>
-->

<net version="1.20" junctionCornerDetail="5" limitTurnSpeed="5.50" xmlns:xsi="http://www.w3.org/2001/XMLSchema-instance" xsi:noNamespaceSchemaLocation="http://sumo.dlr.de/xsd/net_file.xsd">

    <location netOffset="0.00,0.00" convBoundary="0.00,0.00,1000.00,1000.00" origBoundary="0.00,0.00,1000.00,1000.00" projParameter="!"/>

    <edge id=":n00_0" function="internal">
        <lane id=":n00_0_0" index="0" speed="8.96" length="18.06" shape="-4.80,6.40 -4.10,1.50 -2.00,-2.00 1.50,-4.10 6.40,-4.80"/>
        <lane id=":n00_0_1" index="1" speed="7.66" length="12.90" shape="-1.60,6.40 -1.10,2.90 0.40,0.40 2.90,-1.10 6.40,-1.60"/>
    </edge>
    <edge id=":n00_2" function="internal">
        <lane id=":n00_2_0" index="0" speed="3.90" length="2.58" shape="6.40,4.80 5.70,4.90 5.20,5.20 4.90,5.70 4.80,6.40"/>
        <lane id=":n00_2_1" index="1" speed="6.08" length="7.74" shape="6.40,1.60 4.30,1.90 2.80,2.80 1.90,4.30 1.60,6.40"/>
    </edge>
    <edge id=":n01_0" function="internal">
        <lane id=":n01_0_0" index="0" speed="6.51" length="9.03" shape="495.20,10.40 494.85,7.95 493.80,6.20 492.05,5.15 489.60,4.80"/>
        <lane id=":n01_0_1" index="1" speed="8.00" length="14.19" shape="498.40,10.40 497.85,6.55 496.20,3.80 493.45,2.15 489.60,1.60"/>
    </edge>
    <edge id=":n01_2" function="internal">
        <lane id=":n01_2_0" index="0" speed="9.26" length="19.35" shape="498.40,10.40 499.15,5.15 501.40,1.40 505.15,-0.85 510.40,-1.60"/>
    </edge>
    <edge id=":n01_3" function="internal">
        <lane id=":n01_3_0" index="0" speed="3.65" length="2.34" shape="498.40,10.40 499.20,9.20 500.00,8.80"/>
    </edge>
    <edge id=":n01_12" function="internal">
        <lane id=":n01_12_0" index="0" speed="3.65" length="2.34" shape="500.00,8.80 500.80,9.20 501.60,10.40"/>
    </edge>
    <edge id=":n01_4" function="internal">
        <lane id=":n01_4_0" index="0" speed="6.51" length="9.03" shape="510.40,4.80 507.95,5.15 506.20,6.20 505.15,7.95 504.80,10.40"/>
    </edge>
    <edge id=":n01_5" function="internal">
        <lane id=":n01_5_0" index="0" speed="13.90" length="20.80" shape="510.40,4.80 489.60,4.80"/>
        <lane id=":n01_5_1" index="1" speed="13.90" length="20.80" shape="510.40,1.60 489.60,1.60"/>
    </edge>
    <edge id=":n01_7" function="internal">
        <lane id=":n01_7_0" index="0" speed="3.65" length="1.44" shape="510.40,1.60 509.20,0.80"/>
    </edge>
    <edge id=":n01_13" function="internal">
        <lane id=":n01_13_0" index="0" speed="3.65" length="3.23" shape="509.20,0.80 508.80,0.00 509.20,-0.80 510.40,-1.60"/>
    </edge>
    <edge id=":n01_8" function="internal">
        <lane id=":n01_8_0" index="0" speed="13.90" length="20.80" shape="489.60,-4.80 510.40,-4.80"/>
        <lane id=":n01_8_1" index="1" speed="13.90" length="20.80" shape="489.60,-1.60 510.40,-1.60"/>
    </edge>
    <edge id=":n01_10" function="internal">
        <lane id=":n01_10_0" index="0" speed="9.26" length="5.01" shape="489.60,-1.60 494.56,-0.89"/>
    </edge>
    <edge id=":n01_11" function="internal">
        <lane id=":n01_11_0" index="0" speed="3.65" length="1.44" shape="489.60,-1.60 490.80,-0.80"/>
    </edge>
    <edge id=":n01_14" function="internal">
        <lane id=":n01_14_0" index="0" speed="9.26" length="14.34" shape="494.56,-0.89 494.85,-0.85 498.60,1.40 500.85,5.15 501.60,10.40"/>
    </edge>
    <edge id=":n01_15" function="internal">
        <lane id=":n01_15_0" index="0" speed="3.65" length="3.23" shape="490.80,-0.80 491.20,0.00 490.80,0.80 489.60,1.60"/>
    </edge>
    <edge id=":n02_0" function="internal">
        <lane id=":n02_0_0" index="0" speed="3.90" length="2.58" shape="995.20,6.40 995.10,5.70 994.80,5.20 994.30,4.90 993.60,4.80"/>
        <lane id=":n02_0_1" index="1" speed="6.08" length="7.74" shape="998.40,6.40 998.10,4.30 997.20,2.80 995.70,1.90 993.60,1.60"/>
    </edge>
    <edge id=":n02_2" function="internal">
        <lane id=":n02_2_0" index="0" speed="8.96" length="18.06" shape="993.60,-4.80 998.50,-4.10 1002.00,-2.00 1004.10,1.50 1004.80,6.40"/>
        <lane id=":n02_2_1" index="1" speed="7.66" length="12.90" shape="993.60,-1.60 997.10,-1.10 999.60,0.40 1001.10,2.90 1001.60,6.40"/>
    </edge>
    <edge id=":n10_0" function="internal">
        <lane id=":n10_0_0" index="0" speed="13.90" length="20.80" shape="-4.80,510.40 -4.80,489.60"/>
        <lane id=":n10_0_1" index="1" speed="13.90" length="20.80" shape="-1.60,510.40 -1.60,489.60"/>
    </edge>
    <edge id=":n10_2" function="internal">
        <lane id=":n10_2_0" index="0" speed="9.26" length="5.01" shape="-1.60,510.40 -0.89,505.44"/>
    </edge>
    <edge id=":n10_3" function="internal">
        <lane id=":n10_3_0" index="0" speed="3.65" length="1.44" shape="-1.60,510.40 -0.80,509.20"/>
    </edge>
    <edge id=":n10_12" function="internal">
        <lane id=":n10_12_0" index="0" speed="9.26" length="14.34" shape="-0.89,505.44 -0.85,505.15 1.40,501.40 5.15,499.15 10.40,498.40"/>
    </edge>
    <edge id=":n10_13" function="internal">
        <lane id=":n10_13_0" index="0" speed="3.65" length="3.23" shape="-0.80,509.20 0.00,508.80 0.80,509.20 1.60,510.40"/>
    </edge>
    <edge id=":n10_4" function="internal">
        <lane id=":n10_4_0" index="0" speed="6.51" length="9.03" shape="10.40,504.80 7.95,505.15 6.20,506.20 5.15,507.95 4.80,510.40"/>
        <lane id=":n10_4_1" index="1" speed="8.00" length="14.19" shape="10.40,501.60 6.55,502.15 3.80,503.80 2.15,506.55 1.60,510.40"/>
    </edge>
    <edge id=":n10_6" function="internal">
        <lane id=":n10_6_0" index="0" speed="9.26" length="19.35" shape="10.40,501.60 5.15,500.85 1.40,498.60 -0.85,494.85 -1.60,489.60"/>
    </edge>
    <edge id=":n10_7" function="internal">
        <lane id=":n10_7_0" index="0" speed="3.65" length="2.34" shape="10.40,501.60 9.20,500.80 8.80,500.00"/>
    </edge>
    <edge id=":n10_14" function="internal">
        <lane id=":n10_14_0" index="0" speed="3.65" length="2.34" shape="8.80,500.00 9.20,499.20 10.40,498.40"/>
    </edge>
    <edge id=":n10_8" function="internal">
        <lane id=":n10_8_0" index="0" speed="6.51" length="9.03" shape="4.80,489.60 5.15,492.05 6.20,493.80 7.95,494.85 10.40,495.20"/>
    </edge>
    <edge id=":n10_9" function="internal">
        <lane id=":n10_9_0" index="0" speed="13.90" length="20.80" shape="4.80,489.60 4.80,510.40"/>
        <lane id=":n10_9_1" index="1" speed="13.90" length="20.80" shape="1.60,489.60 1.60,510.40"/>
    </edge>
    <edge id=":n10_11" function="internal">
        <lane id=":n10_11_0" index="0" speed="3.65" length="1.44" shape="1.60,489.60 0.80,490.80"/>
    </edge>
    <edge id=":n10_15" function="internal">
        <lane id=":n10_15_0" index="0" speed="3.65" length="3.23" shape="0.80,490.80 0.00,491.20 -0.80,490.80 -1.60,489.60"/>
    </edge>
    <edge id=":n11_0" function="internal">
        <lane id=":n11_0_0" index="0" speed="6.51" length="9.03" shape="495.20,510.40 494.85,507.95 493.80,506.20 492.05,505.15 489.60,504.80"/>
    </edge>
    <edge id=":n11_1" function="internal">
        <lane id=":n11_1_0" index="0" speed="13.90" length="20.80" shape="495.20,510.40 495.20,489.60"/>
        <lane id=":n11_1_1" index="1" speed="13.90" length="20.80" shape="498.40,510.40 498.40,489.60"/>
    </edge>
    <edge id=":n11_3" function="internal">
        <lane id=":n11_3_0" index="0" speed="9.26" length="5.01" shape="498.40,510.40 499.11,505.44"/>
    </edge>
    <edge id=":n11_4" function="internal">
        <lane id=":n11_4_0" index="0" speed="3.65" length="1.44" shape="498.40,510.40 499.20,509.20"/>
    </edge>
    <edge id=":n11_20" function="internal">
        <lane id=":n11_20_0" index="0" speed="9.26" length="14.34" shape="499.11,505.44 499.15,505.15 501.40,501.40 505.15,499.15 510.40,498.40"/>
    </edge>
    <edge id=":n11_21" function="internal">
        <lane id=":n11_21_0" index="0" speed="3.65" length="3.23" shape="499.20,509.20 500.00,508.80 500.80,509.20 501.60,510.40"/>
    </edge>
    <edge id=":n11_5" function="internal">
        <lane id=":n11_5_0" index="0" speed="6.51" length="9.03" shape="510.40,504.80 507.95,505.15 506.20,506.20 505.15,507.95 504.80,510.40"/>
    </edge>
    <edge id=":n11_6" function="internal">
        <lane id=":n11_6_0" index="0" speed="13.90" length="20.80" shape="510.40,504.80 489.60,504.80"/>
        <lane id=":n11_6_1" index="1" speed="13.90" length="20.80" shape="510.40,501.60 489.60,501.60"/>
    </edge>
    <edge id=":n11_8" function="internal">
        <lane id=":n11_8_0" index="0" speed="9.26" length="5.01" shape="510.40,501.60 505.44,500.89"/>
    </edge>
    <edge id=":n11_9" function="internal">
        <lane id=":n11_9_0" index="0" speed="3.65" length="1.44" shape="510.40,501.60 509.20,500.80"/>
    </edge>
    <edge id=":n11_22" function="internal">
        <lane id=":n11_22_0" index="0" speed="9.26" length="14.34" shape="505.44,500.89 505.15,500.85 501.40,498.60 499.15,494.85 498.40,489.60"/>
    </edge>
    <edge id=":n11_23" function="internal">
        <lane id=":n11_23_0" index="0" speed="3.65" length="3.23" shape="509.20,500.80 508.80,500.00 509.20,499.20 510.40,498.40"/>
    </edge>
    <edge id=":n11_10" function="internal">
        <lane id=":n11_10_0" index="0" speed="6.51" length="9.03" shape="504.80,489.60 505.15,492.05 506.20,493.80 507.95,494.85 510.40,495.20"/>
    </edge>
    <edge id=":n11_11" function="internal">
        <lane id=":n11_11_0" index="0" speed="13.90" length="20.80" shape="504.80,489.60 504.80,510.40"/>
        <lane id=":n11_11_1" index="1" speed="13.90" length="20.80" shape="501.60,489.60 501.60,510.40"/>
    </edge>
    <edge id=":n11_13" function="internal">
        <lane id=":n11_13_0" index="0" speed="9.26" length="5.01" shape="501.60,489.60 500.89,494.56"/>
    </edge>
    <edge id=":n11_14" function="internal">
        <lane id=":n11_14_0" index="0" speed="3.65" length="1.44" shape="501.60,489.60 500.80,490.80"/>
    </edge>
    <edge id=":n11_24" function="internal">
        <lane id=":n11_24_0" index="0" speed="9.26" length="14.34" shape="500.89,494.56 500.85,494.85 498.60,498.60 494.85,500.85 489.60,501.60"/>
    </edge>
    <edge id=":n11_25" function="internal">
        <lane id=":n11_25_0" index="0" speed="3.65" length="3.23" shape="500.80,490.80 500.00,491.20 499.20,490.80 498.40,489.60"/>
    </edge>
    <edge id=":n11_15" function="internal">
        <lane id=":n11_15_0" index="0" speed="6.51" length="9.03" shape="489.60,495.20 492.05,494.85 493.80,493.80 494.85,492.05 495.20,489.60"/>
    </edge>
    <edge id=":n11_16" function="internal">
        <lane id=":n11_16_0" index="0" speed="13.90" length="20.80" shape="489.60,495.20 510.40,495.20"/>
        <lane id=":n11_16_1" index="1" speed="13.90" length="20.80" shape="489.60,498.40 510.40,498.40"/>
    </edge>
    <edge id=":n11_18" function="internal">
        <lane id=":n11_18_0" index="0" speed="9.26" length="5.01" shape="489.60,498.40 494.56,499.11"/>
    </edge>
    <edge id=":n11_19" function="internal">
        <lane id=":n11_19_0" index="0" speed="3.65" length="1.44" shape="489.60,498.40 490.80,499.20"/>
    </edge>
    <edge id=":n11_26" function="internal">
        <lane id=":n11_26_0" index="0" speed="9.26" length="14.34" shape="494.56,499.11 494.85,499.15 498.60,501.40 500.85,505.15 501.60,510.40"/>
    </edge>
    <edge id=":n11_27" function="internal">
        <lane id=":n11_27_0" index="0" speed="3.65" length="3.23" shape="490.80,499.20 491.20,500.00 490.80,500.80 489.60,501.60"/>
    </edge>
    <edge id=":n12_0" function="internal">
        <lane id=":n12_0_0" index="0" speed="6.51" length="9.03" shape="995.20,510.40 994.85,507.95 993.80,506.20 992.05,505.15 989.60,504.80"/>
    </edge>
    <edge id=":n12_1" function="internal">
        <lane id=":n12_1_0" index="0" speed="13.90" length="20.80" shape="995.20,510.40 995.20,489.60"/>
        <lane id=":n12_1_1" index="1" speed="13.90" length="20.80" shape="998.40,510.40 998.40,489.60"/>
    </edge>
    <edge id=":n12_3" function="internal">
        <lane id=":n12_3_0" index="0" speed="3.65" length="1.44" shape="998.40,510.40 999.20,509.20"/>
    </edge>
    <edge id=":n12_12" function="internal">
        <lane id=":n12_12_0" index="0" speed="3.65" length="3.23" shape="999.20,509.20 1000.00,508.80 1000.80,509.20 1001.60,510.40"/>
    </edge>
    <edge id=":n12_4" function="internal">
        <lane id=":n12_4_0" index="0" speed="13.90" length="20.80" shape="1004.80,489.60 1004.80,510.40"/>
        <lane id=":n12_4_1" index="1" speed="13.90" length="20.80" shape="1001.60,489.60 1001.60,510.40"/>
    </edge>
    <edge id=":n12_6" function="internal">
        <lane id=":n12_6_0" index="0" speed="9.26" length="5.01" shape="1001.60,489.60 1000.89,494.56"/>
    </edge>
    <edge id=":n12_7" function="internal">
        <lane id=":n12_7_0" index="0" speed="3.65" length="1.44" shape="1001.60,489.60 1000.80,490.80"/>
    </edge>
    <edge id=":n12_13" function="internal">
        <lane id=":n12_13_0" index="0" speed="9.26" length="14.34" shape="1000.89,494.56 1000.85,494.85 998.60,498.60 994.85,500.85 989.60,501.60"/>
    </edge>
    <edge id=":n12_14" function="internal">
        <lane id=":n12_14_0" index="0" speed="3.65" length="3.23" shape="1000.80,490.80 1000.00,491.20 999.20,490.80 998.40,489.60"/>
    </edge>
    <edge id=":n12_8" function="internal">
        <lane id=":n12_8_0" index="0" speed="6.51" length="9.03" shape="989.60,495.20 992.05,494.85 993.80,493.80 994.85,492.05 995.20,489.60"/>
        <lane id=":n12_8_1" index="1" speed="8.00" length="14.19" shape="989.60,498.40 993.45,497.85 996.20,496.20 997.85,493.45 998.40,489.60"/>
    </edge>
    <edge id=":n12_10" function="internal">
        <lane id=":n12_10_0" index="0" speed="9.26" length="19.35" shape="989.60,498.40 994.85,499.15 998.60,501.40 1000.85,505.15 1001.60,510.40"/>
    </edge>
    <edge id=":n12_11" function="internal">
        <lane id=":n12_11_0" index="0" speed="3.65" length="2.34" shape="989.60,498.40 990.80,499.20 991.20,500.00"/>
    </edge>
    <edge id=":n12_15" function="internal">
        <lane id=":n12_15_0" index="0" speed="3.65" length="2.34" shape="991.20,500.00 990.80,500.80 989.60,501.60"/>
    </edge>
    <edge id=":n20_0" function="internal">
        <lane id=":n20_0_0" index="0" speed="8.96" length="18.06" shape="6.40,1004.80 1.50,1004.10 -2.00,1002.00 -4.10,998.50 -4.80,993.60"/>
        <lane id=":n20_0_1" index="1" speed="7.66" length="12.90" shape="6.40,1001.60 2.90,1001.10 0.40,999.60 -1.10,997.10 -1.60,993.60"/>
    </edge>
    <edge id=":n20_2" function="internal">
        <lane id=":n20_2_0" index="0" speed="3.90" length="2.58" shape="4.80,993.60 4.90,994.30 5.20,994.80 5.70,995.10 6.40,995.20"/>
        <lane id=":n20_2_1" index="1" speed="6.08" length="7.74" shape="1.60,993.60 1.90,995.70 2.80,997.20 4.30,998.10 6.40,998.40"/>
    </edge>
    <edge id=":n21_0" function="internal">
        <lane id=":n21_0_0" index="0" speed="13.90" length="20.80" shape="510.40,1004.80 489.60,1004.80"/>
        <lane id=":n21_0_1" index="1" speed="13.90" length="20.80" shape="510.40,1001.60 489.60,1001.60"/>
    </edge>
    <edge id=":n21_2" function="internal">
        <lane id=":n21_2_0" index="0" speed="9.26" length="5.01" shape="510.40,1001.60 505.44,1000.89"/>
    </edge>
    <edge id=":n21_3" function="internal">
        <lane id=":n21_3_0" index="0" speed="3.65" length="1.44" shape="510.40,1001.60 509.20,1000.80"/>
    </edge>
    <edge id=":n21_12" function="internal">
        <lane id=":n21_12_0" index="0" speed="9.26" length="14.34" shape="505.44,1000.89 505.15,1000.85 501.40,998.60 499.15,994.85 498.40,989.60"/>
    </edge>
    <edge id=":n21_13" function="internal">
        <lane id=":n21_13_0" index="0" speed="3.65" length="3.23" shape="509.20,1000.80 508.80,1000.00 509.20,999.20 510.40,998.40"/>
    </edge>
    <edge id=":n21_4" function="internal">
        <lane id=":n21_4_0" index="0" speed="6.51" length="9.03" shape="504.80,989.60 505.15,992.05 506.20,993.80 507.95,994.85 510.40,995.20"/>
        <lane id=":n21_4_1" index="1" speed="8.00" length="14.19" shape="501.60,989.60 502.15,993.45 503.80,996.20 506.55,997.85 510.40,998.40"/>
    </edge>
    <edge id=":n21_6" function="internal">
        <lane id=":n21_6_0" index="0" speed="9.26" length="19.35" shape="501.60,989.60 500.85,994.85 498.60,998.60 494.85,1000.85 489.60,1001.60"/>
    </edge>
    <edge id=":n21_7" function="internal">
        <lane id=":n21_7_0" index="0" speed="3.65" length="2.34" shape="501.60,989.60 500.80,990.80 500.00,991.20"/>
    </edge>
    <edge id=":n21_14" function="internal">
        <lane id=":n21_14_0" index="0" speed="3.65" length="2.34" shape="500.00,991.20 499.20,990.80 498.40,989.60"/>
    </edge>
    <edge id=":n21_8" function="internal">
        <lane id=":n21_8_0" index="0" speed="6.51" length="9.03" shape="489.60,995.20 492.05,994.85 493.80,993.80 494.85,992.05 495.20,989.60"/>
    </edge>
    <edge id=":n21_9" function="internal">
        <lane id=":n21_9_0" index="0" speed="13.90" length="20.80" shape="489.60,995.20 510.40,995.20"/>
        <lane id=":n21_9_1" index="1" speed="13.90" length="20.80" shape="489.60,998.40 510.40,998.40"/>
    </edge>
    <edge id=":n21_11" function="internal">
        <lane id=":n21_11_0" index="0" speed="3.65" length="1.44" shape="489.60,998.40 490.80,999.20"/>
    </edge>
    <edge id=":n21_15" function="internal">
        <lane id=":n21_15_0" index="0" speed="3.65" length="3.23" shape="490.80,999.20 491.20,1000.00 490.80,1000.80 489.60,1001.60"/>
    </edge>
    <edge id=":n22_0" function="internal">
        <lane id=":n22_0_0" index="0" speed="8.96" length="18.06" shape="1004.80,993.60 1004.10,998.50 1002.00,1002.00 998.50,1004.10 993.60,1004.80"/>
        <lane id=":n22_0_1" index="1" speed="7.66" length="12.90" shape="1001.60,993.60 1001.10,997.10 999.60,999.60 997.10,1001.10 993.60,1001.60"/>
    </edge>
    <edge id=":n22_2" function="internal">
        <lane id=":n22_2_0" index="0" speed="3.90" length="2.58" shape="993.60,995.20 994.30,995.10 994.80,994.80 995.10,994.30 995.20,993.60"/>
        <lane id=":n22_2_1" index="1" speed="6.08" length="7.74" shape="993.60,998.40 995.70,998.10 997.20,997.20 998.10,995.70 998.40,993.60"/>
    </edge>

    <edge id="n00_n01" from="n00" to="n01" priority="-1">
        <lane id="n00_n01_0" index="0" speed="13.90" length="483.20" shape="6.40,-4.80 489.60,-4.80"/>
        <lane id="n00_n01_1" index="1" speed="13.90" length="483.20" shape="6.40,-1.60 489.60,-1.60"/>
    </edge>
    <edge id="n00_n10" from="n00" to="n10" priority="-1">
        <lane id="n00_n10_0" index="0" speed="13.90" length="483.20" shape="4.80,6.40 4.80,489.60"/>
        <lane id="n00_n10_1" index="1" speed="13.90" length="483.20" shape="1.60,6.40 1.60,489.60"/>
    </edge>
    <edge id="n01_n00" from="n01" to="n00" priority="-1">
        <lane id="n01_n00_0" index="0" speed="13.90" length="483.20" shape="489.60,4.80 6.40,4.80"/>
        <lane id="n01_n00_1" index="1" speed="13.90" length="483.20" shape="489.60,1.60 6.40,1.60"/>
    </edge>
    <edge id="n01_n02" from="n01" to="n02" priority="-1">
        <lane id="n01_n02_0" index="0" speed="13.90" length="483.20" shape="510.40,-4.80 993.60,-4.80"/>
        <lane id="n01_n02_1" index="1" speed="13.90" length="483.20" shape="510.40,-1.60 993.60,-1.60"/>
    </edge>
    <edge id="n01_n11" from="n01" to="n11" priority="-1">
        <lane id="n01_n11_0" index="0" speed="13.90" length="479.20" shape="504.80,10.40 504.80,489.60"/>
        <lane id="n01_n11_1" index="1" speed="13.90" length="479.20" shape="501.60,10.40 501.60,489.60"/>
    </edge>
    <edge id="n02_n01" from="n02" to="n01" priority="-1">
        <lane id="n02_n01_0" index="0" speed="13.90" length="483.20" shape="993.60,4.80 510.40,4.80"/>
        <lane id="n02_n01_1" index="1" speed="13.90" length="483.20" shape="993.60,1.60 510.40,1.60"/>
    </edge>
    <edge id="n02_n12" from="n02" to="n12" priority="-1">
        <lane id="n02_n12_0" index="0" speed="13.90" length="483.20" shape="1004.80,6.40 1004.80,489.60"/>
        <lane id="n02_n12_1" index="1" speed="13.90" length="483.20" shape="1001.60,6.40 1001.60,489.60"/>
    </edge>
    <edge id="n10_n00" from="n10" to="n00" priority="-1">
        <lane id="n10_n00_0" index="0" speed="13.90" length="483.20" shape="-4.80,489.60 -4.80,6.40"/>
        <lane id="n10_n00_1" index="1" speed="13.90" length="483.20" shape="-1.60,489.60 -1.60,6.40"/>
    </edge>
    <edge id="n10_n11" from="n10" to="n11" priority="-1">
        <lane id="n10_n11_0" index="0" speed="13.90" length="479.20" shape="10.40,495.20 489.60,495.20"/>
        <lane id="n10_n11_1" index="1" speed="13.90" length="479.20" shape="10.40,498.40 489.60,498.40"/>
    </edge>
    <edge id="n10_n20" from="n10" to="n20" priority="-1">
        <lane id="n10_n20_0" index="0" speed="13.90" length="483.20" shape="4.80,510.40 4.80,993.60"/>
        <lane id="n10_n20_1" index="1" speed="13.90" length="483.20" shape="1.60,510.40 1.60,993.60"/>
    </edge>
    <edge id="n11_n01" from="n11" to="n01" priority="-1">
        <lane id="n11_n01_0" index="0" speed="13.90" length="479.20" shape="495.20,489.60 495.20,10.40"/>
        <lane id="n11_n01_1" index="1" speed="13.90" length="479.20" shape="498.40,489.60 498.40,10.40"/>
    </edge>
    <edge id="n11_n10" from="n11" to="n10" priority="-1">
        <lane id="n11_n10_0" index="0" speed="13.90" length="479.20" shape="489.60,504.80 10.40,504.80"/>
        <lane id="n11_n10_1" index="1" speed="13.90" length="479.20" shape="489.60,501.60 10.40,501.60"/>
    </edge>
    <edge id="n11_n12" from="n11" to="n12" priority="-1">
        <lane id="n11_n12_0" index="0" speed="13.90" length="479.20" shape="510.40,495.20 989.60,495.20"/>
        <lane id="n11_n12_1" index="1" speed="13.90" length="479.20" shape="510.40,498.40 989.60,498.40"/>
    </edge>
    <edge id="n11_n21" from="n11" to="n21" priority="-1">
        <lane id="n11_n21_0" index="0" speed="13.90" length="479.20" shape="504.80,510.40 504.80,989.60"/>
        <lane id="n11_n21_1" index="1" speed="13.90" length="479.20" shape="501.60,510.40 501.60,989.60"/>
    </edge>
    <edge id="n12_n02" from="n12" to="n02" priority="-1">
        <lane id="n12_n02_0" index="0" speed="13.90" length="483.20" shape="995.20,489.60 995.20,6.40"/>
        <lane id="n12_n02_1" index="1" speed="13.90" length="483.20" shape="998.40,489.60 998.40,6.40"/>
    </edge>
    <edge id="n12_n11" from="n12" to="n11" priority="-1">
        <lane id="n12_n11_0" index="0" speed="13.90" length="479.20" shape="989.60,504.80 510.40,504.80"/>
        <lane id="n12_n11_1" index="1" speed="13.90" length="479.20" shape="989.60,501.60 510.40,501.60"/>
    </edge>
    <edge id="n12_n22" from="n12" to="n22" priority="-1">
        <lane id="n12_n22_0" index="0" speed="13.90" length="483.20" shape="1004.80,510.40 1004.80,993.60"/>
        <lane id="n12_n22_1" index="1" speed="13.90" length="483.20" shape="1001.60,510.40 1001.60,993.60"/>
    </edge>
    <edge id="n20_n10" from="n20" to="n10" priority="-1">
        <lane id="n20_n10_0" index="0" speed="13.90" length="483.20" shape="-4.80,993.60 -4.80,510.40"/>
        <lane id="n20_n10_1" index="1" speed="13.90" length="483.20" shape="-1.60,993.60 -1.60,510.40"/>
    </edge>
    <edge id="n20_n21" from="n20" to="n21" priority="-1">
        <lane id="n20_n21_0" index="0" speed="13.90" length="483.20" shape="6.40,995.20 489.60,995.20"/>
        <lane id="n20_n21_1" index="1" speed="13.90" length="483.20" shape="6.40,998.40 489.60,998.40"/>
    </edge>
    <edge id="n21_n11" from="n21" to="n11" priority="-1">
        <lane id="n21_n11_0" index="0" speed="13.90" length="479.20" shape="495.20,989.60 495.20,510.40"/>
        <lane id="n21_n11_1" index="1" speed="13.90" length="479.20" shape="498.40,989.60 498.40,510.40"/>
    </edge>
    <edge id="n21_n20" from="n21" to="n20" priority="-1">
        <lane id="n21_n20_0" index="0" speed="13.90" length="483.20" shape="489.60,1004.80 6.40,1004.80"/>
        <lane id="n21_n20_1" index="1" speed="13.90" length="483.20" shape="489.60,1001.60 6.40,1001.60"/>
    </edge>
    <edge id="n21_n22" from="n21" to="n22" priority="-1">
        <lane id="n21_n22_0" index="0" speed="13.90" length="483.20" shape="510.40,995.20 993.60,995.20"/>
        <lane id="n21_n22_1" index="1" speed="13.90" length="483.20" shape="510.40,998.40 993.60,998.40"/>
    </edge>
    <edge id="n22_n12" from="n22" to="n12" priority="-1">
        <lane id="n22_n12_0" index="0" speed="13.90" length="483.20" shape="995.20,993.60 995.20,510.40"/>
        <lane id="n22_n12_1" index="1" speed="13.90" length="483.20" shape="998.40,993.60 998.40,510.40"/>
    </edge>
    <edge id="n22_n21" from="n22" to="n21" priority="-1">
        <lane id="n22_n21_0" index="0" speed="13.90" length="483.20" shape="993.60,1004.80 510.40,1004.80" />
        <lane id="n22_n21_1" index="1" speed="13.90" length="483.20" shape="993.60,1001.60 510.40,1001.60" />
    </edge>

<tlLogic id="n00" type="static" programID="0" offset="0">
    <phase duration="30" state="GGrr"/>  <!-- NS verde, lane esquerda preferencial verde -->
    <phase duration="8"  state="yyrr"/>  <!-- transição NS amarelo -->
    <phase duration="30" state="rGGG"/>  <!-- EW verde, lane esquerda preferencial verde -->
    <phase duration="8"  state="rryy"/>  <!-- transição EW amarelo -->
</tlLogic>

<tlLogic id="n01" type="static" programID="0" offset="8">
    <phase duration="90" state="rrrrGGGgGGgg"/>  <!-- lanes esquerda verde quando EW abre -->
    <phase duration="8"  state="rrrrGyyyyyyy"/>
    <phase duration="90" state="GGGgGrrrrrrr"/>  <!-- lanes esquerda verde quando NS abre -->
    <phase duration="8"  state="yyyyGrrrrrrr"/>
</tlLogic>

<tlLogic id="n02" type="static" programID="0" offset="16">
    <phase duration="30" state="GGrr"/>  <!-- NS verde, lane esquerda preferencial verde -->
    <phase duration="8"  state="yyrr"/>
    <phase duration="30" state="rGGG"/>  <!-- EW verde, lane esquerda preferencial verde -->
    <phase duration="8"  state="rryy"/>
</tlLogic>

<tlLogic id="n10" type="static" programID="0" offset="0">
    <phase duration="90" state="GGggrrrrGGGg"/>  <!-- lane esquerda verde quando NS ou EW abre -->
    <phase duration="8"  state="yyyyrrrrGyyy"/>
    <phase duration="90" state="rrrrGGGgGrrr"/>
    <phase duration="8"  state="rrrryyyyGyyy"/>
</tlLogic>

<tlLogic id="n11" type="static" programID="0" offset="8">
    <phase duration="50" state="GGGggrrrrrGGGggrrrrr"/>
    <phase duration="8"  state="yyyyyrrrrryyyyyrrrrr"/>
    <phase duration="50" state="rrrrrGGGggrrrrrGGGgg"/>
    <phase duration="8"  state="rrrrryyyyyrrrrryyyyy"/>
</tlLogic>

<tlLogic id="n12" type="static" programID="0" offset="16">
    <phase duration="50" state="GGGgGGggrrrr"/>
    <phase duration="8"  state="Gyyyyyyyrrrr"/>
    <phase duration="50" state="GrrrrrrrGGGg"/>
    <phase duration="8"  state="Grrrrrrryyyy"/>
</tlLogic>

<tlLogic id="n20" type="static" programID="0" offset="0">
    <phase duration="30" state="GGrr"/>
    <phase duration="8"  state="yyrr"/>
    <phase duration="30" state="rGGG"/>
    <phase duration="8"  state="rryy"/>
</tlLogic>

<tlLogic id="n21" type="static" programID="0" offset="8">
    <phase duration="90" state="GGggrrrrGGGg"/>
    <phase duration="8"  state="yyyyrrrrGyyy"/>
    <phase duration="90" state="rrrrGGGgGrrr"/>
    <phase duration="8"  state="rrrryyyyGrrr"/>
</tlLogic>

<tlLogic id="n22" type="static" programID="0" offset="16">
    <phase duration="30" state="GGrr"/>
    <phase duration="8"  state="yyrr"/>
    <phase duration="30" state="rGGG"/>
    <phase duration="8"  state="rryy"/>
</tlLogic>

    <junction id="n00" type="traffic_light" x="0.00" y="0.00" incLanes="n10_n00_0 n10_n00_1 n01_n00_0 n01_n00_1" intLanes=":n00_0_0 :n00_0_1 :n00_2_0 :n00_2_1" shape="-6.40,6.40 6.40,6.40 6.40,-6.40 2.49,-6.04 -0.71,-4.98 -3.20,-3.20 -4.98,-0.71 -6.04,2.49">
        <request index="0" response="0000" foes="0000" cont="0"/>
        <request index="1" response="0000" foes="0000" cont="0"/>
        <request index="2" response="0000" foes="0000" cont="0"/>
        <request index="3" response="0000" foes="0000" cont="0"/>
    </junction>
    <junction id="n01" type="traffic_light" x="500.00" y="0.00" incLanes="n11_n01_0 n11_n01_1 n02_n01_0 n02_n01_1 n00_n01_0 n00_n01_1" intLanes=":n01_0_0 :n01_0_1 :n01_2_0 :n01_12_0 :n01_4_0 :n01_5_0 :n01_5_1 :n01_13_0 :n01_8_0 :n01_8_1 :n01_14_0 :n01_15_0" shape="493.60,10.40 506.40,10.40 506.84,8.18 507.40,7.40 508.18,6.84 509.18,6.51 510.40,6.40 510.40,-6.40 489.60,-6.40 489.60,6.40 491.82,6.84 492.60,7.40 493.16,8.18 493.49,9.18">
        <request index="0"  response="000001100000" foes="100001100000" cont="0"/>
        <request index="1"  response="000001100000" foes="100001100000" cont="0"/>
        <request index="2"  response="011101100000" foes="011111100000" cont="0"/>
        <request index="3"  response="010000000000" foes="010000000000" cont="1"/>
        <request index="4"  response="000000000000" foes="000000000000" cont="0"/>
        <request index="5"  response="000000000000" foes="110000000111" cont="0"/>
        <request index="6"  response="000000000000" foes="110000000111" cont="0"/>
        <request index="7"  response="001100000100" foes="001100000100" cont="1"/>