<nodes>
    <node id="n00" x="0" y="0" type="traffic_light"/>
    <node id="n01" x="500" y="0" type="traffic_light"/>
    <node id="n02" x="1000" y="0" type="traffic_light"/>
    <node id="n10" x="0" y="500" type="traffic_light"/>
    <node id="n11" x="500" y="500" type="traffic_light"/>
    <node id="n12" x="1000" y="500" type="traffic_light"/>
    <node id="n20" x="0" y="1000" type="traffic_light"/>
    <node id="n21" x="500" y="1000" type="traffic_light"/>
    <node id="n22" x="1000" y="1000" type="traffic_light"/>
</nodes>

