<?xml version="1.0" encoding="UTF-8"?>

<!-- generated on 2025-09-13 15:05:32 by Eclipse SUMO netconvert Version v1_22_0+1813-e2166271f4e
<netconvertConfiguration xmlns:xsi="http://www.w3.org/2001/XMLSchema-instance" xsi:noNamespaceSchemaLocation="http://sumo.dlr.de/xsd/netconvertConfiguration.xsd">

    <input>
        <sumo-net-file value="grid.net.xml"/>
    </input>

    <output>
        <plain-output-prefix value="tmp"/>
    </output>

    <processing>
        <geometry.min-radius.fix.railways value="false"/>
        <geometry.avoid-overlap value="false"/>
        <geometry.max-grade.fix value="false"/>
        <offset.disable-normalization value="true"/>
        <lefthand value="0"/>
    </processing>

    <junctions>
        <no-turnarounds value="true"/>
        <junctions.corner-detail value="5"/>
        <junctions.limit-turn-speed value="5.50"/>
        <rectangular-lane-cut value="0"/>
    </junctions>

    <pedestrian>
        <walkingareas value="0"/>
    </pedestrian>

</netconvertConfiguration>
-->

<edges version="1.20" xmlns:xsi="http://www.w3.org/2001/XMLSchema-instance" xsi:noNamespaceSchemaLocation="http://sumo.dlr.de/xsd/edges_file.xsd">
    <edge id="n00_n01" from="n00" to="n01" priority="-1" numLanes="2" speed="13.90"/>
    <edge id="n00_n10" from="n00" to="n10" priority="-1" numLanes="2" speed="13.90"/>
    <edge id="n01_n00" from="n01" to="n00" priority="-1" numLanes="2" speed="13.90"/>
    <edge id="n01_n02" from="n01" to="n02" priority="-1" numLanes="2" speed="13.90"/>
    <edge id="n01_n11" from="n01" to="n11" priority="-1" numLanes="2" speed="13.90"/>
    <edge id="n02_n01" from="n02" to="n01" priority="-1" numLanes="2" speed="13.90"/>
    <edge id="n02_n12" from="n02" to="n12" priority="-1" numLanes="2" speed="13.90"/>
    <edge id="n10_n00" from="n10" to="n00" priority="-1" numLanes="2" speed="13.90"/>
    <edge id="n10_n11" from="n10" to="n11" priority="-1" numLanes="2" speed="13.90"/>
    <edge id="n10_n20" from="n10" to="n20" priority="-1" numLanes="2" speed="13.90"/>
    <edge id="n11_n01" from="n11" to="n01" priority="-1" numLanes="2" speed="13.90"/>
    <edge id="n11_n10" from="n11" to="n10" priority="-1" numLanes="2" speed="13.90"/>
    <edge id="n11_n12" from="n11" to="n12" priority="-1" numLanes="2" speed="13.90"/>
    <edge id="n11_n21" from="n11" to="n21" priority="-1" numLanes="2" speed="13.90"/>
    <edge id="n12_n02" from="n12" to="n02" priority="-1" numLanes="2" speed="13.90"/>
    <edge id="n12_n11" from="n12" to="n11" priority="-1" numLanes="2" speed="13.90"/>
    <edge id="n12_n22" from="n12" to="n22" priority="-1" numLanes="2" speed="13.90"/>
    <edge id="n20_n10" from="n20" to="n10" priority="-1" numLanes="2" speed="13.90"/>
    <edge id="n20_n21" from="n20" to="n21" priority="-1" numLanes="2" speed="13.90"/>
    <edge id="n21_n11" from="n21" to="n11" priority="-1" numLanes="2" speed="13.90"/>
    <edge id="n21_n20" from="n21" to="n20" priority="-1" numLanes="2" speed="13.90"/>
    <edge id="n21_n22" from="n21" to="n22" priority="-1" numLanes="2" speed="13.90"/>
    <edge id="n22_n12" from="n22" to="n12" priority="-1" numLanes="2" speed="13.90"/>
    <edge id="n22_n21" from="n22" to="n21" priority="-1" numLanes="2" speed="13.90"/>
</edges>
