<?xml version="1.0" encoding="UTF-8"?>

<!-- generated on 2025-09-13 15:05:32 by Eclipse SUMO netconvert Version v1_22_0+1813-e2166271f4e
<netconvertConfiguration xmlns:xsi="http://www.w3.org/2001/XMLSchema-instance" xsi:noNamespaceSchemaLocation="http://sumo.dlr.de/xsd/netconvertConfiguration.xsd">

    <input>
        <sumo-net-file value="grid.net.xml"/>
    </input>

    <output>
        <plain-output-prefix value="tmp"/>
    </output>

    <processing>
        <geometry.min-radius.fix.railways value="false"/>
        <geometry.avoid-overlap value="false"/>
        <geometry.max-grade.fix value="false"/>
        <offset.disable-normalization value="true"/>
        <lefthand value="0"/>
    </processing>

    <junctions>
        <no-turnarounds value="true"/>
        <junctions.corner-detail value="5"/>
        <junctions.limit-turn-speed value="5.50"/>
        <rectangular-lane-cut value="0"/>
    </junctions>

    <pedestrian>
        <walkingareas value="0"/>
    </pedestrian>

</netconvertConfiguration>
-->

<connections version="1.20" xmlns:xsi="http://www.w3.org/2001/XMLSchema-instance" xsi:noNamespaceSchemaLocation="http://sumo.dlr.de/xsd/connections_file.xsd">
    <connection from="n00_n01" to="n01_n02" fromLane="0" toLane="0"/>
    <connection from="n00_n01" to="n01_n02" fromLane="1" toLane="1"/>
    <connection from="n00_n01" to="n01_n11" fromLane="1" toLane="1"/>
    <connection from="n00_n01" to="n01_n00" fromLane="1" toLane="1"/>

    <connection from="n00_n10" to="n10_n11" fromLane="0" toLane="0"/>
    <connection from="n00_n10" to="n10_n20" fromLane="0" toLane="0"/>
    <connection from="n00_n10" to="n10_n20" fromLane="1" toLane="1"/>
    <connection from="n00_n10" to="n10_n00" fromLane="1" toLane="1"/>

    <connection from="n01_n00" to="n00_n10" fromLane="0" toLane="0"/>
    <connection from="n01_n00" to="n00_n10" fromLane="1" toLane="1"/>

    <connection from="n01_n02" to="n02_n12" fromLane="0" toLane="0"/>
    <connection from="n01_n02" to="n02_n12" fromLane="1" toLane="1"/>

    <connection from="n01_n11" to="n11_n12" fromLane="0" toLane="0"/>
    <connection from="n01_n11" to="n11_n21" fromLane="0" toLane="0"/>
    <connection from="n01_n11" to="n11_n21" fromLane="1" toLane="1"/>
    <connection from="n01_n11" to="n11_n10" fromLane="1" toLane="1"/>
    <connection from="n01_n11" to="n11_n01" fromLane="1" toLane="1"/>

    <connection from="n02_n01" to="n01_n11" fromLane="0" toLane="0"/>
    <connection from="n02_n01" to="n01_n00" fromLane="0" toLane="0"/>
    <connection from="n02_n01" to="n01_n00" fromLane="1" toLane="1"/>
    <connection from="n02_n01" to="n01_n02" fromLane="1" toLane="1"/>

    <connection from="n02_n12" to="n12_n22" fromLane="0" toLane="0"/>
    <connection from="n02_n12" to="n12_n22" fromLane="1" toLane="1"/>
    <connection from="n02_n12" to="n12_n11" fromLane="1" toLane="1"/>
    <connection from="n02_n12" to="n12_n02" fromLane="1" toLane="1"/>

    <connection from="n10_n00" to="n00_n01" fromLane="0" toLane="0"/>
    <connection from="n10_n00" to="n00_n01" fromLane="1" toLane="1"/>

    <connection from="n10_n11" to="n11_n01" fromLane="0" toLane="0"/>
    <connection from="n10_n11" to="n11_n12" fromLane="0" toLane="0"/>
    <connection from="n10_n11" to="n11_n12" fromLane="1" toLane="1"/>
    <connection from="n10_n11" to="n11_n21" fromLane="1" toLane="1"/>
    <connection from="n10_n11" to="n11_n10" fromLane="1" toLane="1"/>

    <connection from="n10_n20" to="n20_n21" fromLane="0" toLane="0"/>
    <connection from="n10_n20" to="n20_n21" fromLane="1" toLane="1"/>

    <connection from="n11_n01" to="n01_n00" fromLane="0" toLane="0"/>
    <connection from="n11_n01" to="n01_n00" fromLane="1" toLane="1"/>
    <connection from="n11_n01" to="n01_n02" fromLane="1" toLane="1"/>
    <connection from="n11_n01" to="n01_n11" fromLane="1" toLane="1"/>

    <connection from="n11_n10" to="n10_n20" fromLane="0" toLane="0"/>
    <connection from="n11_n10" to="n10_n20" fromLane="1" toLane="1"/>
    <connection from="n11_n10" to="n10_n00" fromLane="1" toLane="1"/>
    <connection from="n11_n10" to="n10_n11" fromLane="1" toLane="1"/>

    <connection from="n11_n12" to="n12_n02" fromLane="0" toLane="0"/>
    <connection from="n11_n12" to="n12_n02" fromLane="1" toLane="1"/>
    <connection from="n11_n12" to="n12_n22" fromLane="1" toLane="1"/>
    <connection from="n11_n12" to="n12_n11" fromLane="1" toLane="1"/>

    <connection from="n11_n21" to="n21_n22" fromLane="0" toLane="0"/>
    <connection from="n11_n21" to="n21_n22" fromLane="1" toLane="1"/>
    <connection from="n11_n21" to="n21_n20" fromLane="1" toLane="1"/>
    <connection from="n11_n21" to="n21_n11" fromLane="1" toLane="1"/>

    <connection from="n12_n02" to="n02_n01" fromLane="0" toLane="0"/>
    <connection from="n12_n02" to="n02_n01" fromLane="1" toLane="1"/>

    <connection from="n12_n11" to="n11_n21" fromLane="0" toLane="0"/>
    <connection from="n12_n11" to="n11_n10" fromLane="0" toLane="0"/>
    <connection from="n12_n11" to="n11_n10" fromLane="1" toLane="1"/>
    <connection from="n12_n11" to="n11_n01" fromLane="1" toLane="1"/>
    <connection from="n12_n11" to="n11_n12" fromLane="1" toLane="1"/>

    <connection from="n12_n22" to="n22_n21" fromLane="0" toLane="0"/>
    <connection from="n12_n22" to="n22_n21" fromLane="1" toLane="1"/>

    <connection from="n20_n10" to="n10_n00" fromLane="0" toLane="0"/>
    <connection from="n20_n10" to="n10_n00" fromLane="1" toLane="1"/>
    <connection from="n20_n10" to="n10_n11" fromLane="1" toLane="1"/>
    <connection from="n20_n10" to="n10_n20" fromLane="1" toLane="1"/>

    <connection from="n20_n21" to="n21_n11" fromLane="0" toLane="0"/>
    <connection from="n20_n21" to="n21_n22" fromLane="0" toLane="0"/>
    <connection from="n20_n21" to="n21_n22" fromLane="1" toLane="1"/>
    <connection from="n20_n21" to="n21_n20" fromLane="1" toLane="1"/>

    <connection from="n21_n11" to="n11_n10" fromLane="0" toLane="0"/>
    <connection from="n21_n11" to="n11_n01" fromLane="0" toLane="0"/>
    <connection from="n21_n11" to="n11_n01" fromLane="1" toLane="1"/>
    <connection from="n21_n11" to="n11_n12" fromLane="1" toLane="1"/>
    <connection from="n21_n11" to="n11_n21" fromLane="1" toLane="1"/>

    <connection from="n21_n20" to="n20_n10" fromLane="0" toLane="0"/>
    <connection from="n21_n20" to="n20_n10" fromLane="1" toLane="1"/>

    <connection from="n21_n22" to="n22_n12" fromLane="0" toLane="0"/>
    <connection from="n21_n22" to="n22_n12" fromLane="1" toLane="1"/>

    <connection from="n22_n12" to="n12_n11" fromLane="0" toLane="0"/>
    <connection from="n22_n12" to="n12_n02" fromLane="0" toLane="0"/>
    <connection from="n22_n12" to="n12_n02" fromLane="1" toLane="1"/>
    <connection from="n22_n12" to="n12_n22" fromLane="1" toLane="1"/>

    <connection from="n22_n21" to="n21_n20" fromLane="0" toLane="0"/>
    <connection from="n22_n21" to="n21_n20" fromLane="1" toLane="1"/>
    <connection from="n22_n21" to="n21_n11" fromLane="1" toLane="1"/>
    <connection from="n22_n21" to="n21_n22" fromLane="1" toLane="1"/>

</connections>
