<?xml version="1.0" encoding="UTF-8"?>

<!-- generated on 2025-09-13 15:05:32 by Eclipse SUMO netconvert Version v1_22_0+1813-e2166271f4e
<netconvertConfiguration xmlns:xsi="http://www.w3.org/2001/XMLSchema-instance" xsi:noNamespaceSchemaLocation="http://sumo.dlr.de/xsd/netconvertConfiguration.xsd">

    <input>
        <sumo-net-file value="grid.net.xml"/>
    </input>

    <output>
        <plain-output-prefix value="tmp"/>
    </output>

    <processing>
        <geometry.min-radius.fix.railways value="false"/>
        <geometry.avoid-overlap value="false"/>
        <geometry.max-grade.fix value="false"/>
        <offset.disable-normalization value="true"/>
        <lefthand value="0"/>
    </processing>

    <junctions>
        <no-turnarounds value="true"/>
        <junctions.corner-detail value="5"/>
        <junctions.limit-turn-speed value="5.50"/>
        <rectangular-lane-cut value="0"/>
    </junctions>

    <pedestrian>
        <walkingareas value="0"/>
    </pedestrian>

</netconvertConfiguration>
-->

<nodes version="1.20" xmlns:xsi="http://www.w3.org/2001/XMLSchema-instance" xsi:noNamespaceSchemaLocation="http://sumo.dlr.de/xsd/nodes_file.xsd">
    <location netOffset="0.00,0.00" convBoundary="0.00,0.00,1000.00,1000.00" origBoundary="0.00,0.00,1000.00,1000.00" projParameter="!"/>

    <node id="n00" x="0.00" y="0.00" type="traffic_light" tl="n00"/>
    <node id="n01" x="500.00" y="0.00" type="traffic_light" tl="n01"/>
    <node id="n02" x="1000.00" y="0.00" type="traffic_light" tl="n02"/>
    <node id="n10" x="0.00" y="500.00" type="traffic_light" tl="n10"/>
    <node id="n11" x="500.00" y="500.00" type="traffic_light" tl="n11"/>
    <node id="n12" x="1000.00" y="500.00" type="traffic_light" tl="n12"/>
    <node id="n20" x="0.00" y="1000.00" type="traffic_light" tl="n20"/>
    <node id="n21" x="500.00" y="1000.00" type="traffic_light" tl="n21"/>
    <node id="n22" x="1000.00" y="1000.00" type="traffic_light" tl="n22"/>
</nodes>
